/*--------------------------------*- C++ -*----------------------------------*\
  =========                 |
  \\      /  F ield         | OpenFOAM: The Open Source CFD Toolbox
   \\    /   O peration     | Website:  https://openfoam.org
    \\  /    A nd           | Version:  2212
     \\/     M anipulation  |
\*---------------------------------------------------------------------------*/
FoamFile
{
    version     2.0;
    format      ascii;
    class       dictionary;
    object      physicalProperties;
}
// * * * * * * * * * * * * * * * * * * * * * * * * * * * * * * * * * * * * * //

Ro              [0 0 0 0 0 0 0] 0.001;
Re              [0 0 0 0 0 0 0] 450;
Fr              [0 0 0 0 0 0 0] 0.1;
sigma           [0 0 0 0 0 0 0] 5e-3;
delta           [0 0 0 0 0 0 0] 0.5;
//alpha           [0 0 0 0 0 0 0] 0.125;


// ************************************************************************* //
