/*--------------------------------*- C++ -*----------------------------------*\
  =========                 |
  \\      /  F ield         | OpenFOAM: The Open Source CFD Toolbox
   \\    /   O peration     | Website:  https://openfoam.org
    \\  /    A nd           | Version:  v2212
     \\/     M anipulation  |
\*---------------------------------------------------------------------------*/
FoamFile
{
    version     2.0;
    format      ascii;
    class       dictionary;
    object      fvSolution;
}
// * * * * * * * * * * * * * * * * * * * * * * * * * * * * * * * * * * * * * //

solvers
{
    q1
    {
        solver          PBiCGStab; 
        preconditioner  DILU; 
        tolerance       1e-06; 
        relTol          0.1; 
    }

    psi1
    {
        solver          PCG; 
        preconditioner  DIC; 
        tolerance       1e-06; 
        relTol          0.05;
    }
    q2
    {
        solver          PBiCGStab; 
        preconditioner  DILU; 
        tolerance       1e-06; 
        relTol          0.1; 
    }

    psi2
    {
        solver          PCG; 
        preconditioner  DIC; 
        tolerance       1e-06; 
        relTol          0.05;  
    }
    
    q1Filtered
    {
		  solver				PBiCGStab;
		  preconditioner	DIC;
		  tolerance			1e-06;
		  relTol				0.1;    
    }
    
    q2Filtered
    {
		  solver				PBiCGStab;
		  preconditioner	DIC;
		  tolerance			1e-06;
		  relTol				0.1;    
    }
}


// ************************************************************************* //
