/*--------------------------------*- C++ -*----------------------------------*\
| =========                 |                                                 |
| \\      /  F ield         | OpenFOAM: The Open Source CFD Toolbox           |
|  \\    /   O peration     | Version:  v2212                                 |
|   \\  /    A nd           | Website:  www.openfoam.com                      |
|    \\/     M anipulation  |                                                 |
\*---------------------------------------------------------------------------*/
FoamFile
{
    version     2.0;
    format      ascii;
    class       dictionary;
    object      setExprBoundaryFieldsDict;
}
// * * * * * * * * * * * * * * * * * * * * * * * * * * * * * * * * * * * * * //

pattern
{
    field   q1;
    dimensions  [0 0 0 0 0 0 0];

    expressions
    (
        {
            patch   verticalWalls;
            target  value;
            expression #{ pos().y() #};
        }

        {
            patch   horizontalWalls;
            target  value;
            expression #{ pos().y() #};
        }
    );
}


// ************************************************************************* //
