/*--------------------------------*- C++ -*----------------------------------*\
| =========                 |                                                 |
| \\      /  F ield         | OpenFOAM: The Open Source CFD Toolbox           |
|  \\    /   O peration     | Version:  v1812                                 |
|   \\  /    A nd           | Web:      www.OpenFOAM.com                      |
|    \\/     M anipulation  |                                                 |
\*---------------------------------------------------------------------------*/
FoamFile
{
    version     2.0;
    format      ascii;
    class       dictionary;
    object      blockMeshDict;
}
// * * * * * * * * * * * * * * * * * * * * * * * * * * * * * * * * * * * * * //

scale   1;

vertices
(
    (0 0 0)        //0
    (3200 0 0)     //1
    (3200  4000 0)  //2
    (0 4000 0)     //3
    (0 0 3200)        //4
    (3200 0 3200)     //5
    (3200  4000 3200)  //6
    (0 4000 3200)     //7
);

blocks
(
    hex (0 1 2 3 4 5 6 7) (80 100 80) simpleGrading (1 1 1)
);

edges
(
);

boundary
(
    top
    {
        type patch ;//cyclic;
        //neighbourPatch bottom;
        faces
        (
            (3 7 6 2)
        );
    }
    bottom
    {
         type patch ;//cyclic;
        //neighbourPatch bottom;
        faces
        (
            (0 4 5 1)
        );
    }
    left
    {
        type patch ;//cyclic;
        //neighbourPatch bottom;
        faces
        (
            (0 4 7 3)
        );
    }

    right
    {
         type patch ;//cyclic;
        //neighbourPatch bottom;
        faces
        (
            (1 5 6 2)
        );
    }
    
    
    front
    {
         type patch ;//cyclic;
        //neighbourPatch bottom;
        faces
        (
            (0 1 2 3)
        );
    }
    
    
    back
    {
         type patch ;//cyclic;
        //neighbourPatch bottom;
        faces
        (
            (4 5 6 7)
        );
    }        


);

mergePatchPairs
(
);

// ************************************************************************* //
