/*--------------------------------*- C++ -*----------------------------------*\
| =========                 |                                                 |
| \\      /  F ield         | OpenFOAM: The Open Source CFD Toolbox           |
|  \\    /   O peration     | Version:  v1812                                 |
|   \\  /    A nd           | Web:      www.OpenFOAM.com                      |
|    \\/     M anipulation  |                                                 |
\*---------------------------------------------------------------------------*/
FoamFile
{
    version     2.0;
    format      ascii;
    class       dictionary;
    object      blockMeshDict;
}
// * * * * * * * * * * * * * * * * * * * * * * * * * * * * * * * * * * * * * //

scale   1;

vertices
(
    (-7.8125 -7.8125 0)        //0
    (4992.1875 -7.8125 0)     //1
    (4992.1875  9992.1875 0)  //2
    (-7.8125 9992.1875 0)     //3
    (-7.8125 -7.8125 1000)        //4
    (4992.1875 -7.8125 1000)     //5
    (4992.1875 9992.1875 1000)  //6
    (-7.8125 9992.1875 1000)     //7
);

blocks
(
    hex (0 1 2 3 4 5 6 7) (320 640 1) simpleGrading (1 1 1)
);

edges
(
);

boundary
(
    top
    {
        type patch ;//cyclic;
        //neighbourPatch bottom;
        faces
        (
            (3 7 6 2)
        );
    }
    bottom
    {
         type patch ;//cyclic;
        //neighbourPatch bottom;
        faces
        (
            (0 4 5 1)
        );
    }
    left
    {
        type patch ;//cyclic;
        //neighbourPatch bottom;
        faces
        (
            (0 4 7 3)
        );
    }

    right
    {
         type patch ;//cyclic;
        //neighbourPatch bottom;
        faces
        (
            (1 5 6 2)
        );
    }

    frontandback
    {
        type empty;
        faces
        (
            (0 1 2 3)
            (4 5 6 7)
        );
    }


);

mergePatchPairs
(
);

// ************************************************************************* //
