/*--------------------------------*- C++ -*----------------------------------*\
  =========                 |
  \\      /  F ield         | OpenFOAM: The Open Source CFD Toolbox
   \\    /   O peration     | Website:  https://openfoam.org
    \\  /    A nd           | Version:  8
     \\/     M anipulation  |
\*---------------------------------------------------------------------------*/
FoamFile
{
    version     2.0;
    format      ascii;
    class       dictionary;
    object      fvSchemes;
}
// * * * * * * * * * * * * * * * * * * * * * * * * * * * * * * * * * * * * * //

ddtSchemes
{
    default         Euler;
}

divSchemes
{
    default         Gauss linear; 
    div(phi,q)      Gauss linear; 
    curl(psiVector) Gauss linear; 
}

laplacianSchemes
{
    default                 none;
    laplacian(Ro,psi)	    Gauss linear orthogonal; 
    laplacian((1|Re),q)     Gauss linear orthogonal; 
}   

gradSchemes
{
    default           Gauss linear;
}

// ************************************************************************* //
